/*--------------------------------*- C++ -*----------------------------------*\
| =========                 |                                                 |
| \\      /  F ield         | OpenFOAM: The Open Source CFD Toolbox           |
|  \\    /   O peration     | Version:  2412                                  |
|   \\  /    A nd           | Website:  www.openfoam.com                      |
|    \\/     M anipulation  |                                                 |
\*---------------------------------------------------------------------------*/
FoamFile
{
    version     2.0;
    format      ascii;
    arch        "LSB;label=32;scalar=64";
    class       polyBoundaryMesh;
    location    "constant/polyMesh";
    object      boundary;
}
// * * * * * * * * * * * * * * * * * * * * * * * * * * * * * * * * * * * * * //

9
(
    inlet
    {
        type            patch;
        physicalType    patch;
        nFaces          75;
        startFace       19455;
    }
    obstacle
    {
        type            patch;
        physicalType    patch;
        nFaces          81;
        startFace       19530;
    }
    bottom
    {
        type            symmetry;
        physicalType    symmetry;
        inGroups        1(symmetry);
        nFaces          0;
        startFace       19611;
    }
    outlet
    {
        type            patch;
        physicalType    patch;
        nFaces          0;
        startFace       19611;
    }
    top
    {
        type            symmetry;
        physicalType    symmetry;
        inGroups        1(symmetry);
        nFaces          0;
        startFace       19611;
    }
    defaultFaces
    {
        type            empty;
        inGroups        1(empty);
        nFaces          19662;
        startFace       19611;
    }
    procBoundary1to0
    {
        type            processor;
        inGroups        1(processor);
        nFaces          90;
        startFace       39273;
        matchTolerance  0.0001;
        transform       unknown;
        myProcNo        1;
        neighbProcNo    0;
    }
    procBoundary1to2
    {
        type            processor;
        inGroups        1(processor);
        nFaces          42;
        startFace       39363;
        matchTolerance  0.0001;
        transform       unknown;
        myProcNo        1;
        neighbProcNo    2;
    }
    procBoundary1to7
    {
        type            processor;
        inGroups        1(processor);
        nFaces          126;
        startFace       39405;
        matchTolerance  0.0001;
        transform       unknown;
        myProcNo        1;
        neighbProcNo    7;
    }
)

// ************************************************************************* //
