/*--------------------------------*- C++ -*----------------------------------*\
| =========                 |                                                 |
| \\      /  F ield         | OpenFOAM: The Open Source CFD Toolbox           |
|  \\    /   O peration     | Version:  2412                                  |
|   \\  /    A nd           | Website:  www.openfoam.com                      |
|    \\/     M anipulation  |                                                 |
\*---------------------------------------------------------------------------*/
FoamFile
{
    version     2.0;
    format      ascii;
    arch        "LSB;label=32;scalar=64";
    class       polyBoundaryMesh;
    location    "constant/polyMesh";
    object      boundary;
}
// * * * * * * * * * * * * * * * * * * * * * * * * * * * * * * * * * * * * * //

8
(
    inlet
    {
        type            patch;
        physicalType    patch;
        nFaces          11;
        startFace       19331;
    }
    obstacle
    {
        type            patch;
        physicalType    patch;
        nFaces          0;
        startFace       19342;
    }
    bottom
    {
        type            symmetry;
        physicalType    symmetry;
        inGroups        1(symmetry);
        nFaces          121;
        startFace       19342;
    }
    outlet
    {
        type            patch;
        physicalType    patch;
        nFaces          77;
        startFace       19463;
    }
    top
    {
        type            symmetry;
        physicalType    symmetry;
        inGroups        1(symmetry);
        nFaces          0;
        startFace       19540;
    }
    defaultFaces
    {
        type            empty;
        inGroups        1(empty);
        nFaces          19542;
        startFace       19540;
    }
    procBoundary0to1
    {
        type            processor;
        inGroups        1(processor);
        nFaces          90;
        startFace       39082;
        matchTolerance  0.0001;
        transform       unknown;
        myProcNo        0;
        neighbProcNo    1;
    }
    procBoundary0to2
    {
        type            processor;
        inGroups        1(processor);
        nFaces          123;
        startFace       39172;
        matchTolerance  0.0001;
        transform       unknown;
        myProcNo        0;
        neighbProcNo    2;
    }
)

// ************************************************************************* //
