/*--------------------------------*- C++ -*----------------------------------*\
| =========                 |                                                 |
| \\      /  F ield         | OpenFOAM: The Open Source CFD Toolbox           |
|  \\    /   O peration     | Version:  2412                                  |
|   \\  /    A nd           | Website:  www.openfoam.com                      |
|    \\/     M anipulation  |                                                 |
\*---------------------------------------------------------------------------*/
FoamFile
{
    version     2.0;
    format      ascii;
    arch        "LSB;label=32;scalar=64";
    class       polyBoundaryMesh;
    location    "constant/polyMesh";
    object      boundary;
}
// * * * * * * * * * * * * * * * * * * * * * * * * * * * * * * * * * * * * * //

9
(
    inlet
    {
        type            patch;
        physicalType    patch;
        nFaces          80;
        startFace       19323;
    }
    obstacle
    {
        type            patch;
        physicalType    patch;
        nFaces          80;
        startFace       19403;
    }
    bottom
    {
        type            symmetry;
        physicalType    symmetry;
        inGroups        1(symmetry);
        nFaces          0;
        startFace       19483;
    }
    outlet
    {
        type            patch;
        physicalType    patch;
        nFaces          0;
        startFace       19483;
    }
    top
    {
        type            symmetry;
        physicalType    symmetry;
        inGroups        1(symmetry);
        nFaces          0;
        startFace       19483;
    }
    defaultFaces
    {
        type            empty;
        inGroups        1(empty);
        nFaces          19526;
        startFace       19483;
    }
    procBoundary5to2
    {
        type            processor;
        inGroups        1(processor);
        nFaces          42;
        startFace       39009;
        matchTolerance  0.0001;
        transform       unknown;
        myProcNo        5;
        neighbProcNo    2;
    }
    procBoundary5to3
    {
        type            processor;
        inGroups        1(processor);
        nFaces          83;
        startFace       39051;
        matchTolerance  0.0001;
        transform       unknown;
        myProcNo        5;
        neighbProcNo    3;
    }
    procBoundary5to4
    {
        type            processor;
        inGroups        1(processor);
        nFaces          121;
        startFace       39134;
        matchTolerance  0.0001;
        transform       unknown;
        myProcNo        5;
        neighbProcNo    4;
    }
)

// ************************************************************************* //
