/*--------------------------------*- C++ -*----------------------------------*\
| =========                 |                                                 |
| \\      /  F ield         | OpenFOAM: The Open Source CFD Toolbox           |
|  \\    /   O peration     | Version:  2412                                  |
|   \\  /    A nd           | Website:  www.openfoam.com                      |
|    \\/     M anipulation  |                                                 |
\*---------------------------------------------------------------------------*/
FoamFile
{
    version     2.0;
    format      ascii;
    arch        "LSB;label=32;scalar=64";
    class       polyBoundaryMesh;
    location    "constant/polyMesh";
    object      boundary;
}
// * * * * * * * * * * * * * * * * * * * * * * * * * * * * * * * * * * * * * //

8
(
    inlet
    {
        type            patch;
        physicalType    patch;
        nFaces          98;
        startFace       19490;
    }
    obstacle
    {
        type            patch;
        physicalType    patch;
        nFaces          71;
        startFace       19588;
    }
    bottom
    {
        type            symmetry;
        physicalType    symmetry;
        inGroups        1(symmetry);
        nFaces          0;
        startFace       19659;
    }
    outlet
    {
        type            patch;
        physicalType    patch;
        nFaces          0;
        startFace       19659;
    }
    top
    {
        type            symmetry;
        physicalType    symmetry;
        inGroups        1(symmetry);
        nFaces          0;
        startFace       19659;
    }
    defaultFaces
    {
        type            empty;
        inGroups        1(empty);
        nFaces          19714;
        startFace       19659;
    }
    procBoundary7to1
    {
        type            processor;
        inGroups        1(processor);
        nFaces          126;
        startFace       39373;
        matchTolerance  0.0001;
        transform       unknown;
        myProcNo        7;
        neighbProcNo    1;
    }
    procBoundary7to6
    {
        type            processor;
        inGroups        1(processor);
        nFaces          153;
        startFace       39499;
        matchTolerance  0.0001;
        transform       unknown;
        myProcNo        7;
        neighbProcNo    6;
    }
)

// ************************************************************************* //
